# generated using pymatgen
data_HC3N
_symmetry_space_group_name_H-M   'P 1'
_cell_length_a   3.88920500
_cell_length_b   7.22343183
_cell_length_c   7.22509000
_cell_angle_alpha   60.00722521
_cell_angle_beta   88.82490000
_cell_angle_gamma   87.41235966
_symmetry_Int_Tables_number   1
_chemical_formula_structural   HC3N
_chemical_formula_sum   'H3 C9 N3'
_cell_volume   175.61662546
_cell_formula_units_Z   3
loop_
 _symmetry_equiv_pos_site_id
 _symmetry_equiv_pos_as_xyz
  1  'x, y, z'
loop_
 _atom_site_type_symbol
 _atom_site_label
 _atom_site_symmetry_multiplicity
 _atom_site_fract_x
 _atom_site_fract_y
 _atom_site_fract_z
 _atom_site_occupancy
  C  C0  1  0.50198000  0.89222500  0.55228500  1
  C  C1  1  0.50204000  0.78021000  0.44019500  1
  C  C2  1  0.50037000  0.43976500  0.12112000  1
  C  C3  1  0.50027000  0.55606000  0.88851000  1
  C  C4  1  0.50210000  0.78014000  0.77640500  1
  C  C5  1  0.50134000  0.43979000  0.43598000  1
  C  C6  1  0.50109000  0.55614000  0.55224500  1
  C  C7  1  0.49957000  0.44409000  0.77636500  1
  C  C8  1  0.50154000  0.12484000  0.43602500  1
  H  H9  1  0.50318000  0.86695000  0.26681000  1
  H  H10  1  0.49774000  0.27078500  0.86303500  1
  H  H11  1  0.50272000  0.86689500  0.86298500  1
  N  N12  1  0.50106000  0.55526500  0.22083000  1
  N  N13  1  0.50172000  0.22460000  0.55145000  1
  N  N14  1  0.50035000  0.22457500  0.22085000  1
